%chk=view.chk
#

Title

0 1
6    -0.16708   -0.49578    1.12235
6    -0.98653   1.08619     2.76749
8    0.0        0.0         0.0
7    -1.03213   0.19752     3.79506
8    -2.06037   -0.51203    3.95507
8    -0.0       0.0         4.48934
1    -1.94015   1.33947     2.32958
1    -0.16118   1.78159     2.79089
1    -1.06274   -1.10457    1.35273
1    0.68682    -0.66924    1.80548




