%chk=view.chk
#

Title

0 1
C        -0.22451     -0.34646      1.16745
C        -0.91697      0.72807      1.99904
O         0.00000      0.00000      0.00000
N        -0.97796     -0.00661      3.14107
O        -1.95042     -0.78556      3.32521
O        -0.00000     -0.00000      3.93472
H        -1.84527      0.82043      1.45585
H        -0.16123      1.49871      1.98213
H        -1.08068     -1.00297      1.41617
H         0.57555     -0.33552      1.93275



